5
Properties=species:S:1:pos:R:3:forces:R:3:charge:R:1 energy=-211.70345536617754 free_energy=-211.70345536617754 pbc="F F F"
C        0.00000000       0.00000000       0.00000000       4.93127580       4.93126665       4.93125731       4.46922611
H        0.65330000       0.65330000       0.65330000       2.39878631       2.39879152       2.39879664       0.58848046
H       -0.65330000       0.65330000       0.65330000      -2.86766979      -2.23118939      -2.23118915       0.98076442
H        0.65330000      -0.65330000       0.65330000      -2.23119396      -2.86767051      -2.23119363       0.98076442
H        0.65330000       0.65330000      -0.65330000      -2.23119835      -2.23119827      -2.86767118       0.98076459
