5
Properties=species:S:1:pos:R:3:forces:R:3:charge:R:1 energy=-211.70367025135022 free_energy=-211.70367025135022 pbc="F F F"
C        0.00000000       0.00000000       0.00000000       4.93098760       4.93097846       4.93096911       4.46929064
H        0.65330000       0.65330000       0.65330000       2.39928491       2.39929012       2.39929524       0.58841995
H       -0.65330000       0.65330000       0.65330000      -2.86789709      -2.23118094      -2.23118070       0.98076308
H        0.65330000      -0.65330000       0.65330000      -2.23118551      -2.86789782      -2.23118518       0.98076308
H        0.65330000       0.65330000      -0.65330000      -2.23118990      -2.23118982      -2.86789848       0.98076325
