5
Properties=species:S:1:pos:R:3:forces:R:3:charge:R:1 energy=-211.7079543767189 free_energy=-211.7079543767189 pbc="F F F"
C        0.00000000       0.00000000       0.00000000       4.90902353       4.90901439       4.90900504       4.46926761
H        0.65330000       0.65330000       0.65330000       2.30600373       2.30600894       2.30601408       0.58838536
H       -0.65330000       0.65330000       0.65330000      -2.87636152      -2.16932610      -2.16932586       0.98078229
H        0.65330000      -0.65330000       0.65330000      -2.16933067      -2.87636225      -2.16933034       0.98078229
H        0.65330000       0.65330000      -0.65330000      -2.16933507      -2.16933498      -2.87636291       0.98078246
